<routes xmlns:xsi="http://www.w3.org/2001/XMLSchema-instance" xsi:noNamespaceSchemaLocation="http://sumo.dlr.de/xsd/routes_file.xsd">
    <vType id="car" accel="2.6" decel="4.5" sigma="0.5" length="5.0" minGap="2.5" maxSpeed="13.89" guiShape="passenger" lcCooperative="1.0" lcSpeedGain="1.0" lcStrategic="1.0" latAlignment="center" minGapLat="0.6"/>

</routes>
