<edges xmlns:xsi="http://www.w3.org/2001/XMLSchema-instance" xsi:noNamespaceSchemaLocation="http://sumo.dlr.de/xsd/edges_file.xsd">
    <!-- =================================================================
         交差点64 (1386236878) 周辺流入エッジの右折レーン増設パッチ
         (南側本線は30m手前のみを3車線化し、それより手前は2車線に維持します)
         ================================================================= -->
    
    <!-- 北からの流入 (全長53m: 全体を綺麗な3車線道路に上書き) -->
    <edge id="-461237392#5" from="8425745667" to="1386236878" numLanes="3"/>
    
    <!-- 南からの流入: 追加された中間ノードから交差点までの30m区間のみを3車線化 -->
    <edge id="edge_64_south_taper_to_junc" from="node_64_south_taper" to="1386236878" numLanes="3"/>
    
    <!-- 西支線 (全長合計70m: 全体を綺麗な2車線道路に上書き) -->
    <edge id="-124585729#1" from="8425745665" to="7296384874" numLanes="2"/>
    <edge id="-124585729#0" from="7296384874" to="1386236878" numLanes="2"/>
    
    <!-- 東支線 (全長合計12m: 全体を綺麗な2車線道路に上書き) -->
    <edge id="-124579517#1" from="10915541257" to="7296384881" numLanes="2"/>
    <edge id="-124579517#0" from="7296384881" to="1386236878" numLanes="2"/>
</edges>
