<nodes xmlns:xsi="http://www.w3.org/2001/XMLSchema-instance" xsi:noNamespaceSchemaLocation="http://sumo.dlr.de/xsd/nodes_file.xsd">
    <!-- =================================================================
         交差点64 (1386236878) 南側本線のテーパー開始(30m手前右折レーン)用 中間ノード
         (南本線は全長104mと十分に長いため、自動マージの影響を受けずに綺麗に分割できます)
         ================================================================= -->
    
    <!-- 南側中間ノード (交差点から30m手前) -->
    <node id="node_64_south_taper" x="140.1084996" y="39.7160644" type="priority"/>
</nodes>
