<routes xmlns:xsi="http://www.w3.org/2001/XMLSchema-instance" xsi:noNamespaceSchemaLocation="http://sumo.dlr.de/xsd/routes_file.xsd">
    <vType id="car" accel="2.6" decel="4.5" sigma="0.5" length="5.0" minGap="2.5" maxSpeed="13.89" guiShape="passenger" lcCooperative="1.0" lcSpeedGain="1.0" lcStrategic="1.0" latAlignment="center" minGapLat="0.6"/>

    <routeDistribution id="dist_29_548">
        <route edges="-1001269102 1001269101 -124571297#2 -124571297#1 -582239518#1 -582239518#0 376882518#4 1001269102 -124586210 -461237392#29 -461237392#28 -461237392#27 -461237392#26 -461237392#25 -461237392#24 -124596824#1 -124596824#0 -124598229#1 -124598229#0 124599584 124575721#2 -1058085066" probability="0.0078"/>
        <route edges="-1001269102 1001269101 -124571297#2 -124571297#1 -582239518#1 -582239518#0 376882518#4 1001269102 -124586210 -461237392#29 -461237392#28 124574114#0 124574114#1 124574114#2 124574114#3 124566907 124571529#1 -124557409#1 -124557409#0 -124558056 -124557367#1 -124557367#0 124555726 -124597515 124592084 -124584748 -124596025 124588673 124596333#0 124596333#1 -124555169#3 -124555169#2 -124555169#1 -124555169#0" probability="0.0078"/>
        <route edges="-1001269102 1001269101 -124571297#2 -124571297#1 -582239518#1 -582239518#0 376882518#4 1001269102 -124586210 -461237392#29 -461237392#28 124574114#0 124574114#1 124574114#2 124574114#3 124566907 124571529#1 -124557409#1 -124557409#0 -124558056 -124557367#1 -124557367#0 124555726 -124597515 124592084 -124584748 -124596025 124588673 124596333#0 124596333#1 124555169#4 -124597603#1 -124597603#0 -124601908 -124557764 124559454#0 124559454#1 -124592721#2 -124592721#1 -124592721#0 124588842#0 124588842#1 124588842#2 -124557595#2 -124557595#1 -124557595#0" probability="0.0078"/>
        <route edges="-1001269102 1001269101 -124572210#6 -124572210#5 -124572210#4 -124572210#3 -124572210#2 -124572210#1 -124572210#0 -576489656#1 -576489656#0 -124569003#1 -124569003#0 -576489657 -124596855 -576489660 -124560034 -124559216#5 -124559216#4 -124559216#3 -124559216#1 -124559216#0 124595902#0 124595902#1 124569511#0 124569511#2 124565377#0 124565377#1 124557108#0 911457091 -124572147#2 -124572147#1 -124572147#0 124573396 -576489690 -576489688 -576489691 -576489692 -124555327 -124579851#3 -124579851#2 -124579851#1 -124579851#0 -124557779#0" probability="0.0078"/>
        <route edges="-1001269102 1001269101 -124571297#2 -124571297#1 -582239518#1 -582239518#0 376882518#4 1001269102 -124586210 -461237392#29 -461237392#28 -461237392#27 -461237392#26 -461237392#25 -461237392#24 -461237392#23 -461237392#22 -461237392#21 -461237392#20 -461237392#19 -461237392#18 -461237392#17 -461237392#16 -461237392#15 -461237392#14 -461237392#13 -461237392#12 -461237392#11 -461237392#10 740747715#0 740747715#1 -573278204#1 -573278204#0 -573278206 -573278205 -461068429 -124573284#10 -124573284#9 -124573284#8 -124573284#7 -124573284#6 -124573284#5 -124573284#4 -124573284#2 -124573284#1 -124573284#0 -124559030#3 -124559030#2 -124559030#1 -124559030#0 -574697515#1 -574697515#0 -124558198#1 -124558198#0" probability="0.0078"/>
        <route edges="-1001269102 1001269101 -124571297#2 -124571297#1 -582239518#1 -582239518#0 376882518#4 1001269102 -124586210 -461237392#29 -461237392#28 124574114#0 124574114#1 124574114#2 124574114#3 124566907 124571529#1 -124557409#1 -124557409#0 -124558056 -124557367#1 -124557367#0 124555726 -124597515 124592084 -124584748 -124596025 124588673 124596333#0 124596333#1 -124558504 124555443 -124562613#1 -124562613#0 124588852 -124556900 -124558449" probability="0.0078"/>
        <route edges="-1001269102 1001269101 -124572210#6 -124572210#5 -124572210#4 -124572210#3 -124572210#2 -124572210#1 -124572210#0 -576489656#1 -576489656#0 -124569003#1 -124569003#0 -576489657 -124596855 -576489660 -124560034 -124559216#5 -124559216#4 -124559216#3 -124559216#1 -124559216#0 124595902#0 124595902#1 124569511#0 124569511#2 124565377#0 124565377#1 124557108#0 911457091 -124572147#2 -124572147#1 -124572147#0 124573396 -576489690 -576489688 -576489691 -576489692 124599964#1 124581693 124566858 124587529#0 124587529#1 124587529#2 -124564753" probability="0.0078"/>
        <route edges="-1001269102 1001269101 -124571297#2 -124571297#1 -124571297#0 -124567009" probability="0.0078"/>
        <route edges="-1001269102 1001269101 -124571297#2 -124571297#1 -582239518#1 -582239518#0 376882518#4 1001269102 -124586210 -461237392#29 -461237392#28 124574114#0 124574114#1 124574114#2 124574114#3 124566907 124571529#1 -124557409#1 -124557409#0 -124558056 -124557367#1 -124557367#0 124555726 -124597515 124592084 -124584748 -124596025 124588673 -124571849#1 -124571849#0" probability="0.0078"/>
        <route edges="-1001269102 1001269101 -124571297#2 -124571297#1 -582239518#1 -582239518#0 376882518#4 1001269102 -124586210 -461237392#29 -461237392#28 124574114#0 124574114#1 124574114#2 124574114#3 124563629#0 124563629#1 124563629#2 -124574112" probability="0.0078"/>
        <route edges="-1001269102 1001269101 -124572210#6 -124572210#5 -124572210#4 -124572210#3 -124572210#2 -124572210#1 -124572210#0 -576489656#1 -576489656#0 -124569003#1 -124569003#0 -576489657 -124596855 -576489660 -124560034 -124559216#5 -124559216#4 -124559216#3 -124559216#1 -124559216#0 124595902#0 124595902#1 124569511#0 124569511#2 124565377#0 124565377#1 124557108#0 911457091 -124572147#2 -124572147#1 -124572147#0 124573396 -576489690 -576489688 -576489691 -576489692 124599964#1 124581693 124566858 -124594476 -124574395#2 -124574395#0" probability="0.0078"/>
        <route edges="-1001269102 1001269101 -124571297#2 -124571297#1 -582239518#1 -582239518#0 376882518#4 1001269102 -124586210 -461237392#29 -461237392#28 -461237392#27 -461237392#26 -461237392#25 -461237392#24 -461237392#23 -461237392#22 -461237392#21 -461237392#20 -461237392#19 -461237392#18 -461237392#17 -461237392#16 -461237392#15 -461237392#14 -461237392#13 -461237392#12 -461237392#11 -461237392#10 -461237392#9 -461237392#8 -461237392#7 -461237392#6 -461237392#5 124585729#0 124585729#1 124585729#2 124585729#3 124585729#4 482474753#0 482474753#1 482474753#2 124574295#5 -124601420#6 -124601420#5 -124601420#4 -124601420#3 -124601420#2 -124601420#1 -124601420#0 -124589571#1 -124589571#0 -124584701#2 -124584701#1 -124584701#0" probability="0.0078"/>
        <route edges="-1001269102 1001269101 -124571297#2 -124571297#1 -582239518#1 -582239518#0 376882518#4 1001269102 -124586210 -461237392#29 -461237392#28 -461237392#27 -461237392#26 -461237392#25 -461237392#24 -461237392#23 -461237392#22 -461237392#21 -461237392#20 -461237392#19 -461237392#18 -461237392#17 -461237392#16 -461237392#15 -461237392#14 -461237392#13 -461237392#12 -461237392#11 -461237392#10 -461237392#9 -461237392#8 -461237392#7 -461237392#6 -461237392#5 124585729#0 124585729#1 124585729#2 124585729#3 124585729#4 482474753#0 482474753#1 482474753#2 124574295#5 -124601420#6 -124601420#5 -124601420#4 -124601420#3 -124601420#2 -124601420#1 -124601420#0 574697527 -124575697#1 -124575697#0 -124584783#1 -124584783#0" probability="0.0078"/>
        <route edges="-1001269102 1001269101 -124571297#2 -124571297#1 -582239518#1 -582239518#0 376882518#4 1001269102 -124586210 -461237392#29 -461237392#28 -461237392#27 -461237392#26 -461237392#25 -461237392#24 -124596824#1 -124596824#0 -124598229#1 -124598229#0 124599584 -124578663 -576489683 -124596308#1 -124594352 124556518#0 124556518#1 124573074#0 124573074#1 -124594618#1 -124594618#0 -124584898#1 -124584898#0" probability="0.0078"/>
        <route edges="-1001269102 1001269101 -124572210#6 -124572210#5 -124572210#4 -124589590" probability="0.0078"/>
        <route edges="-1001269102 1001269101 -124571297#2 -124571297#1 -582239518#1 -582239518#0 376882518#4 1001269102 -124586210 -461237392#29 -461237392#28 124574114#0 124574114#1 124574114#2 124574114#3 124566907 124571529#1 -124557409#1 -124557409#0 -124558056 -124557367#1 -124557367#0 124555726 -124597515 -124600359" probability="0.0078"/>
        <route edges="-1001269102 -376882518#4 -376882518#3 -376882518#2 -376882518#1 -376882518#0" probability="0.0078"/>
        <route edges="-1001269102 1001269101 -124572210#6 -124572210#5 -124572210#4 -124572210#3 -124572210#2 -124572210#1 -124572210#0 -576489656#1 -576489656#0 -124569003#1 -124569003#0 -576489657 -124596855 -576489660 -124560034 -124559216#5 -124559216#4 -124559216#3 124572709#0 124572709#1 124572709#2 124572709#3 124572709#4 -124598652#2 -124598652#1 -124598652#0 -124588059#1 -124588059#0 124578569#0 124578569#1 -124575489 -576489685 -124557983#4 -124557983#3 -124557983#2 -124557983#1 -124557983#0 -124557969 574697491#0 574697491#1 574697491#2 574697489#0 574697489#1 574697490 124564966#0 124564966#1 124564966#2 124564966#4 124564966#5 124564966#6 461012080#0 461012080#1 461012076 574697499 461012073 -573278175#1 -573278175#0 -574697502#1 -574697502#0 -574697503#2 -574697503#1 -574697503#0 -574697504#1 -574697504#0 -574697505#1 -574697505#0 -460937258#1 -460937258#0" probability="0.0078"/>
        <route edges="-1001269102 1001269101 -124571297#2 -124571297#1 -582239518#1 -582239518#0 376882518#4 1001269102 -124586210 -461237392#29 -461237392#28 -461237392#27 -461237392#26 -461237392#25 -461237392#24 -461237392#23 -461237392#22 -461237392#21 -461237392#20 -461237392#19 -461237392#18 -461237392#17 -461237392#16 -461237392#15 -461237392#14 -461237392#13 -461237392#12 -461237392#11 -461237392#10 -461237392#9 -461237392#8 -461237392#7 -461237392#6 -461237392#5 -461237392#4 -461237392#3 -461237392#2 -461237392#1 -461237392#0 -626170254 574880350#0 574880350#1 574880350#2 574880346 124587248#0 124587248#1 124587248#2 -461357533#1 -461357533#0" probability="0.0078"/>
        <route edges="-1001269102 1001269101 -124571297#2 -124571297#1 -582239518#1 -582239518#0 376882518#4 1001269102 -124586210 -461237392#29 -461237392#28 -461237392#27 -461237392#26 -461237392#25 -461237392#24 -461237392#23 -461237392#22 -461237392#21 -461237392#20 -461237392#19 -461237392#18 -461237392#17 -461237392#16 -461237392#15 -461237392#14 -461237392#13 -461237392#12 -461237392#11 -461237392#10 -461237392#9 -461237392#8 -461237392#7 -461237392#6 -461237392#5 -461237392#4 -461237392#3 -461237392#2 -461237392#1 -461237392#0 -626170254 574697536#0 461013594 -461013596 -574697539 -574697540" probability="0.0078"/>
        <route edges="-1001269102 1001269101 -124572210#6 -124572210#5 -124572210#4 -124572210#3 -124572210#2 -124572210#1 -124572210#0 -576489656#1 -576489656#0 -124569003#1 -124569003#0 -576489657 -124596855 -576489660 -124560034 -124559216#5 -124559216#4 -124559216#3 124572709#0 124572709#1 124572709#2 124572709#3 124572709#4 -124598652#2 -124598652#1 -124598652#0 -124588059#1 -124588059#0 124578569#0 124578569#1 -124575489 -576489685 -124557983#4 -124557983#3 -124557983#2 -124557983#1 -124557983#0 -124557969 574697491#0 574697491#1 574697491#2 574697489#0 574697489#1 574697490 124564966#0 124564966#1 124564966#2 124564966#4 124564966#5 124564966#6 461012080#0 461012080#1 461012076 574697499 461012073 -573278175#1 -573278175#0 -574697502#1 -574697502#0 -574697503#2 -574697503#1 -574697503#0 -574697504#1 -574697504#0 -574697505#1 -574697505#0 -574880277 -574880275" probability="0.0078"/>
        <route edges="-1001269102 1001269101 -124572210#6 -124572210#5 124572508#0 124572508#1 124572508#2 -582239517#0" probability="0.0078"/>
        <route edges="-1001269102 1001269101 -124571297#2 -124571297#1 -582239518#1 -582239518#0 376882518#4 1001269102 -124586210 -461237392#29 -461237392#28 124574114#0 124574114#1 124574114#2 124574114#3 124566907 124571529#1 -124557409#1 -124557409#0 -124558056 -124557367#1 -124557367#0 124555726 -124597515 124592084 -124584748 -124596025 124588673 124596333#0 124596333#1 124555169#4 -124597603#1 -124597603#0 -124601908 -124557764 124559454#0 124559454#1 -124592721#2 -124592721#1 -124592721#0 124588842#0 124588842#1 124588842#2 -124582144#1 -124582144#0 124564906#0 124564906#1 124564906#2 124564906#3 -124585117#1 -124585117#0 -124580458#1 -766884838" probability="0.0078"/>
        <route edges="-1001269102 1001269101 -124571297#2 -124571297#1 -582239518#1 -582239518#0 376882518#4 1001269102 -124586210 -461237392#29 -461237392#28 -461237392#27 -461237392#26 -461237392#25 -461237392#24 -461237392#23 -461237392#22 -461237392#21 -461237392#20 -461237392#19 -461237392#18 124601654#0 124601654#1 124601654#2 -773150106" probability="0.0078"/>
        <route edges="-1001269102 1001269101 -124571297#2 -124571297#1 -582239518#1 -582239518#0 376882518#4 1001269102 -124586210 -461237392#29 -461237392#28 -461237392#27 -461237392#26 -461237392#25 -461237392#24 -461237392#23 -461237392#22 -461237392#21 124564568#0 124564568#1 124564568#2 124564568#3 124564568#4 773150095#0 773150095#1 -773150111" probability="0.0078"/>
        <route edges="-1001269102 1001269101 -124571297#2 -124571297#1 -582239518#1 -582239518#0 376882518#4 1001269102 -124586210 -461237392#29 -461237392#28 -461237392#27 -461237392#26 -461237392#25 -461237392#24 -461237392#23 -461237392#22 -461237392#21 124564568#0 124564568#1 124564568#2 -773150115" probability="0.0078"/>
        <route edges="-1001269102 1001269101 -124571297#2 -124571297#1 -582239518#1 -582239518#0 376882518#4 1001269102 -124586210 -461237392#29 -461237392#28 124574114#0 124574114#1 124574114#2 124574114#3 124563629#0 124563629#1 124563629#2 -773150117#3 -773150117#2 -773150117#0" probability="0.0078"/>
        <route edges="-1001269102 1001269101 -124571297#2 -124571297#1 -582239518#1 -582239518#0 376882518#4 1001269102 -124586210 -461237392#29 -461237392#28 124574114#0 124574114#1 124574114#2 124574114#3 124566907 124571529#1 -124557409#1 -124557409#0 -124558056 -124557367#1 -124557367#0 124555726 -124597515 124592084 -124584748 -124596025 124588673 -124571849#1 -782595777#0" probability="0.0078"/>
        <route edges="-1001269102 1001269101 -124572210#6 -124572210#5 -124572210#4 -124572210#3 -124572210#2 -124572210#1 -124572210#0 -576489656#1 -576489656#0 -124569003#1 -124569003#0 -576489657 -124596855 -576489660 -124560034 -124559216#5 -124559216#4 -124559216#3 -124559216#1 -124559216#0 124595902#0 124595902#1 124569511#0 124569511#2 124565377#0 124565377#1 124557108#0 911457091 -124572147#2 -124572147#1 -124572147#0 124573396 -576489690 -576489688 -576489691 -576489692 124599964#1 124581693 124566858 -124594476 -124574395#2 -820909823" probability="0.0078"/>
        <route edges="-1001269102 1001269101 -124571297#2 -124571297#1 -582239518#1 -582239518#0 376882518#4 1001269102 -124586210 -461237392#29 -461237392#28 -461237392#27 -461237392#26 -461237392#25 -461237392#24 -461237392#23 -461237392#22 -461237392#21 -461237392#20 -461237392#19 -461237392#18 -461237392#17 -461237392#16 -461237392#15 -461237392#14 -461237392#13 -461237392#12 -461237392#11 -461237392#10 -461237392#9 -461237392#8 -461237392#7 -461237392#6 -461237392#5 -461237392#4 -461237392#3 -461237392#2 -461237392#1 -461237392#0 -626170254 574880350#0 574880350#1 574880350#2 574880346 124587248#0 124587248#1 -823845576" probability="0.0078"/>
        <route edges="-1001269102 1001269101 -124571297#2 -124571297#1 -582239518#1 -582239518#0 376882518#4 1001269102 -124586210 -461237392#29 -461237392#28 -461237392#27 -461237392#26 -461237392#25 -461237392#24 -461237392#23 -461237392#22 -461237392#21 -461237392#20 -461237392#19 -461237392#18 -461237392#17 124561570 -124582746#2 -124582746#1 781494944#0 -828471155" probability="0.0078"/>
        <route edges="-1001269102 1001269101 -124571297#2 -124571297#1 -582239518#1 -582239518#0 376882518#4 1001269102 -124586210 -461237392#29 -461237392#28 -461237392#27 -461237392#26 -461237392#25 -461237392#24 -461237392#23 -461237392#22 -461237392#21 -461237392#20 -461237392#19 -461237392#18 -461237392#17 124561570 -124582746#2 -124582746#1 781494944#0 781494947#1 781494947#2 124557087#1 -124558288#1 -124558288#0 124571128#0 -842050440" probability="0.0078"/>
        <route edges="-1001269102 1001269101 -124571297#2 -124571297#1 -582239518#1 -582239518#0 376882518#4 1001269102 -124586210 -461237392#29 -461237392#28 -461237392#27 -461237392#26 -461237392#25 -461237392#24 -461237392#23 -461237392#22 -461237392#21 -461237392#20 -461237392#19 -461237392#18 124601654#0 124601654#1 124601654#2 -124559059 124568415 -124571454#1 -842051363" probability="0.0078"/>
        <route edges="-1001269102 1001269101 -124571297#2 -124571297#1 -582239518#1 -582239518#0 376882518#4 1001269102 -124586210 -461237392#29 -461237392#28 124574114#0 124574114#1 124574114#2 124574114#3 124563629#0 124563629#1 -842087444" probability="0.0078"/>
        <route edges="-1001269102 1001269101 -124571297#2 -124571297#1 -582239518#1 -582239518#0 376882518#4 1001269102 -124586210 -461237392#29 -461237392#28 124574114#0 124574114#1 124574114#2 124574114#3 124566907 -842092645" probability="0.0078"/>
        <route edges="-1001269102 1001269101 -124571297#2 -124571297#1 -582239518#1 -582239518#0 376882518#4 1001269102 -124586210 -461237392#29 -461237392#28 -461237392#27 -461237392#26 -842092732#1 -842092732#0" probability="0.0078"/>
        <route edges="-1001269102 1001269101 -124571297#2 -124571297#1 -582239518#1 -582239518#0 376882518#4 1001269102 -124586210 -461237392#29 -461237392#28 -461237392#27 -461237392#26 -461237392#25 -461237392#24 -461237392#23 -461237392#22 -461237392#21 124564568#0 124564568#1 124564568#2 124564568#3 124564568#4 773150095#0 773150113#0 773150113#1 124572784#0 -842100058#0" probability="0.0078"/>
        <route edges="-1001269102 1001269101 -124571297#2 -124571297#1 -582239518#1 -582239518#0 376882518#4 1001269102 -124586210 -461237392#29 -461237392#28 -461237392#27 -461237392#26 -461237392#25 -461237392#24 -461237392#23 -461237392#22 -461237392#21 124564568#0 124564568#1 124564568#2 124564568#3 -842100113" probability="0.0078"/>
        <route edges="-1001269102 1001269101 -124572210#6 -124572210#5 -124572210#4 -124572210#3 -124572210#2 -124572210#1 -124572210#0 -576489656#1 -576489656#0 -124569003#1 -124569003#0 -576489657 -124596855 -576489660 -124560034 -124559216#5 -124559216#4 -124559216#3 -124559216#1 -124559216#0 124595902#0 124595902#1 124569511#0 124569511#2 124565377#0 124565377#1 124557108#0 911457091 -124572147#2 -911457092" probability="0.0078"/>
        <route edges="-1001269102 1001269101 -124572210#6 -124572210#5 -124572210#4 -124572210#3 -124572210#2 -124572210#1 -124572210#0 -576489656#1 -576489656#0 -124569003#1 -124569003#0 -576489657 -124596855 -576489660 -124560034 -124559216#5 -124559216#4 -124559216#3 -124559216#1 -124559216#0 124560446#0 124560446#1 -915676906" probability="0.0078"/>
        <route edges="-1001269102 1001269101 -124572210#6 -124572210#5 -124572210#4 -124572210#3 -124572210#2 -124572210#1 -124572210#0 -576489656#1 -576489656#0 -124569003#1 -124569003#0 -576489657 -124596855 -576489660 -124560034 -124559216#5 -124559216#4 -124559216#3 -124559216#1 -124559216#0 124595902#0 124595902#1 124569511#0 124569511#2 124565377#0 124565377#1 -915686536" probability="0.0078"/>
        <route edges="-1001269102 1001269101 -124572210#6 -124572210#5 -124572210#4 -124572210#3 -124572210#2 -124572210#1 -124572210#0 -576489656#1 -576489656#0 -124569003#1 -124569003#0 -576489657 -124596855 -576489660 -124560034 -124559216#5 -124559216#4 -124559216#3 -124559216#1 -124559216#0 124595902#0 124595902#1 124569511#0 124569511#2 124565377#0 -915686573" probability="0.0078"/>
        <route edges="-1001269102 1001269101 -124572210#6 -124572210#5 -124572210#4 -124572210#3 -124572210#2 -124572210#1 -124572210#0 -576489656#1 -576489656#0 -124569003#1 -124569003#0 -576489657 -124596855 -576489660 -124560034 -124559216#5 -124559216#4 -124559216#3 -124559216#1 -124559216#0 124595902#0 124595902#1 124569511#0 124569511#2 124565377#0 124565377#1 124557108#0 911457091 124572147#3 -915686613" probability="0.0078"/>
        <route edges="-1001269102 640595612#0 -934518452#1 -934518452#0" probability="0.0078"/>
        <route edges="-1001269102 1001269101 -124572210#6 -124572210#5 -124572210#4 -124572210#3 -124572210#2 -124572210#1 -124572210#0 -576489656#1 -576489656#0 -124569003#1 -124569003#0 -576489657 -124596855 -576489660 -124560034 -124559216#5 -124559216#4 -124559216#3 124572709#0 124572709#1 124572709#2 124572709#3 124572709#4 -124598652#2 -124598652#1 -124598652#0 -124588059#1 -124588059#0 124578569#0 124578569#1 -124575489 -576489685 -124557983#4 -124557983#3 -124557983#2 -124557983#1 -124557983#0 -124557969 574697491#0 574697491#1 574697491#2 574697489#0 574697489#1 124590384#0 -124583513#1 -124583513#0 -124569333 124577320#0 1005287237" probability="0.0078"/>
        <route edges="-1001269102 1001269101 -124571297#2 -124571297#1 -124571297#0 -124569598 124555496" probability="0.0078"/>
        <route edges="-1001269102 1001269101 -124571297#2 -124571297#1 -582239518#1 -582239518#0 376882518#4 1001269102 -124586210 -461237392#29 -461237392#28 124574114#0 124574114#1 124574114#2 124574114#3 124566907 124571529#1 -124557409#1 -124557409#0 124556499" probability="0.0078"/>
        <route edges="-1001269102 1001269101 -124572210#6 -124572210#5 -124572210#4 -124572210#3 -124572210#2 -124572210#1 -124572210#0 -576489656#1 -576489656#0 -124569003#1 -124569003#0 -576489657 -124596855 -576489660 -124560034 -124559216#5 -124559216#4 -124559216#3 124572709#0 124572709#1 124572709#2 124572709#3 124572709#4 -124598652#2 -124598652#1 -124598652#0 -851955125#1 -851955125#0 -124555484#1 -124555484#0 -124580998 576489686#1 -124557779#9 -124557779#8 -124557779#6 -124557779#5 -124557779#4 -124557779#3 -124557779#2 124556880#0 124556880#1" probability="0.0078"/>
        <route edges="-1001269102 1001269101 -124572210#6 -124572210#5 -124572210#4 -124572210#3 -124572210#2 -124572210#1 -124572210#0 -576489656#1 -576489656#0 -124569003#1 -124569003#0 -576489657 -124596855 -576489660 -124560034 -124559216#5 -124559216#4 -124559216#3 124572709#0 124572709#1 124572709#2 124572709#3 124572709#4 -124598652#2 -124598652#1 -124598652#0 -124588059#1 -124588059#0 124578569#0 124578569#1 -124575489 -576489685 -124557983#4 -124557983#3 -124557983#2 -124557983#1 -124557983#0 -124557969 574697491#0 574697491#1 574697491#2 574697489#0 574697489#1 124590384#0 -124583513#1 -124583513#0 -124569333 -124555357 124557452" probability="0.0078"/>
        <route edges="-1001269102 1001269101 -124571297#2 -124571297#1 -582239518#1 -582239518#0 376882518#4 1001269102 -124586210 -461237392#29 -461237392#28 124574114#0 124574114#1 124574114#2 124574114#3 124566907 124571529#1 -124557409#1 -124557409#0 -124558056 -124557367#1 -124557367#0 124555726 -124597515 124592084 -124584748 -124596025 124588673 124596333#0 124596333#1 124555169#4 -124597603#1 -124597603#0 -124601908 -124557764 124559454#0 124559454#1 -124592721#2 -124592721#1 -124592721#0 124588842#0 124588842#1 124588842#2 -124582144#1 -124582144#0 124564906#0 124564906#1 124564906#2 124564906#3 -124585117#1 -124585117#0 124569219 -124584440 124557857#1" probability="0.0078"/>
        <route edges="-1001269102 1001269101 -124571297#2 -124571297#1 -582239518#1 -582239518#0 376882518#4 1001269102 -124586210 -461237392#29 -461237392#28 -461237392#27 -461237392#26 -461237392#25 -461237392#24 -124596824#1 -124596824#0 -124589327 -124556869 -124565591#1 -124565591#0 124568421#0 124568421#1 124568421#2 124594489 -576489654 124587595#0 124587595#1 124587595#2 124587595#3 124587595#4 124587595#5 576489649 124581578#0 124581578#1 124581578#2 124581578#3 124581578#4 124581578#5 124581578#6 124581578#7 124581578#8 124581578#9 124581578#10 124581578#11 124596778#0 124596778#1 124596778#2 124559100#0 124559100#1" probability="0.0078"/>
        <route edges="-1001269102 1001269101 -124572210#6 -124572210#5 -124572210#4 -124572210#3 -124572210#2 -124572210#1 -124572210#0 -576489656#1 -576489656#0 -124569003#1 -124569003#0 -576489657 -124596855 -576489660 -124560034 -124559216#5 -124559216#4 -124559216#3 -124559216#1 -124559216#0 124595902#0 124595902#1 124569511#0 124569511#2 124565377#0 124565377#1 124557108#0 911457091 -124572147#2 -124572147#1 -124572147#0 124573396 -576489690 -576489688 -576489691 -576489692 124599964#1 124581693 124566858 124587529#0 124587529#1 817742073 462340311 -124600192 124565065" probability="0.0078"/>
        <route edges="-1001269102 1001269101 -124572210#6 -124572210#5 -124572210#4 -124572210#3 -124572210#2 -124572210#1 -124572210#0 -576489656#1 -576489656#0 -124569003#1 -124569003#0 -576489657 -124596855 -576489660 -124560034 -124559216#5 -124559216#4 -124559216#3 124572709#0 124572709#1 124572709#2 124572709#3 124572709#4 -124598652#2 -124598652#1 -124598652#0 -124588059#1 -124588059#0 124578569#0 124578569#1 -124575489 -576489685 -124557983#4 -124557983#3 -124557983#2 -124557983#1 -124557983#0 -124557969 574697491#0 574697491#1 574697491#2 574697489#0 574697489#1 124590384#0 -124583513#1 -124583513#0 -124569333 -124555357 -124586433#1 -124586433#0 124570807" probability="0.0078"/>
        <route edges="-1001269102 1001269101 -124572210#6 -124572210#5 -124572210#4 -124572210#3 -124572210#2 -124572210#1 -124572210#0 -576489656#1 -576489656#0 -124569003#1 -124569003#0 -576489657 -124596855 -576489660 -124560034 -124559216#5 -124559216#4 -124559216#3 124572709#0 124572709#1 124572709#2 124572709#3 124572709#4 -124598652#2 -124598652#1 -124598652#0 -851955125#1 -851955125#0 -124555484#1 -124555484#0 -124580998 576489686#1 124574925#0 124574925#1 124574925#2 -124582863#1 -124565181#5 -124565181#4 -124565181#3 -124565181#2 -124565181#1 -124565181#0 124570725#0 124570725#1 124570725#2 124570725#3 124570725#4 -124583191#1 -124583191#0 124571389" probability="0.0078"/>
        <route edges="-1001269102 1001269101 -124572210#6 -124572210#5 -124572210#4 -124572210#3 -124572210#2 -124572210#1 -124572210#0 -576489656#1 -576489656#0 -124569003#1 -124569003#0 -576489657 -124596855 -576489660 -124560034 -124559216#5 -124559216#4 -124559216#3 -124559216#1 -124559216#0 124595902#0 124595902#1 124569511#0 124569511#2 124565377#0 124565377#1 124557108#0 911457091 124572147#3 124572147#4" probability="0.0078"/>
        <route edges="-1001269102 1001269101 -124572210#6 -124572210#5 124572508#0 124572508#1 124572508#2 124572508#3 124572508#4" probability="0.0078"/>
        <route edges="-1001269102 1001269101 -124571297#2 -124571297#1 -582239518#1 -582239518#0 376882518#4 1001269102 -124586210 -461237392#29 -461237392#28 124574114#0 124574114#1 124574114#2 124574114#3 124566907 124571529#1 -124557409#1 -124557409#0 -124558056 -124557367#1 -124557367#0 124555726 -124597515 124592084 -124584748 -124596025 124588673 124596333#0 124596333#1 -124558504 124555443 -124562613#1 -124562613#0 124573254#0 124573254#1 124573254#2" probability="0.0078"/>
        <route edges="-1001269102 1001269101 -124572210#6 -124572210#5 -124572210#4 -124572210#3 -124572210#2 -124572210#1 -124572210#0 -576489656#1 -576489656#0 -124569003#1 -124569003#0 -576489657 -124596855 -576489660 -124560034 -124559216#5 -124559216#4 -124559216#3 124572709#0 124572709#1 124572709#2 124572709#3 124572709#4 -124598652#2 -124598652#1 -124598652#0 -124588059#1 -124588059#0 124578569#0 124578569#1 -124575489 -576489685 -124557983#4 -124557983#3 -124557983#2 -124557983#1 -124557983#0 -124557969 574697491#0 574697491#1 574697491#2 574697489#0 574697489#1 574697490 124564966#0 124564966#1 124564966#2 124564966#4 124564966#5 124564966#6 461012080#0 461012080#1 461012076 574697499 461012073 -573278175#1 -573278175#0 -574697502#1 -574697502#0 -574697503#2 -574697503#1 -574697503#0 -574697504#1 -574697504#0 -574697505#1 -574697505#0 534183521#0 534183521#1 534183520 460937260#0 460937260#1 460937260#2 460937260#3 124579762#0 124579762#1" probability="0.0078"/>
        <route edges="-1001269102 1001269101 -124571297#2 -124571297#1 -582239518#1 -582239518#0 376882518#4 1001269102 -124586210 -461237392#29 -461237392#28 -461237392#27 -461237392#26 -461237392#25 -461237392#24 -461237392#23 -461237392#22 -461237392#21 -461237392#20 -461237392#19 -461237392#18 -461237392#17 -461237392#16 -461237392#15 -461237392#14 -461237392#13 -461237392#12 -461237392#11 -461237392#10 740747715#0 740747715#1 -573278204#1 -573278204#0 -573278206 -573278205 -461068429 -124573284#10 -124573284#9 -124573284#8 -124573284#7 -124573284#6 -124573284#5 -124573284#4 -124573284#2 -124573284#1 -124573284#0 574697530#0 574697530#1 574697530#2 -124587931#1 -124587931#0 573278199#0 573278199#1 573278199#2 -574697507#0 124579978#0 124579978#1" probability="0.0078"/>
        <route edges="-1001269102 1001269101 -124571297#2 -124571297#1 -582239518#1 -582239518#0 376882518#4 1001269102 -124586210 -461237392#29 -461237392#28 124574114#0 124574114#1 124574114#2 124574114#3 124566907 124571529#1 -124557409#1 -124557409#0 -124558056 -124557367#1 -124557367#0 124555726 -124597515 124592084 -124584748 -124596025 124588673 124596333#0 124596333#1 -124558504 124582133" probability="0.0078"/>
        <route edges="-1001269102 1001269101 -124571297#2 -124571297#1 -582239518#1 -582239518#0 376882518#4 1001269102 -124586210 -461237392#29 -461237392#28 -461237392#27 -461237392#26 -461237392#25 -461237392#24 -461237392#23 -461237392#22 -461237392#21 -461237392#20 -461237392#19 -461237392#18 -461237392#17 -461237392#16 -461237392#15 -461237392#14 -461237392#13 -461237392#12 -461237392#11 -461237392#10 -461237392#9 -461237392#8 -461237392#7 -461237392#6 -461237392#5 124585729#0 124585729#1 124585729#2 124585729#3 124585729#4 482474753#0 482474753#1 482474753#2 124574295#5 -124601420#6 -124601420#5 -124601420#4 -124601420#3 -124601420#2 -124601420#1 -124601420#0 -124589571#1 -124589571#0 573278200#3 124587340#0 124587340#1 124587340#2" probability="0.0078"/>